Simulation_Files/R4-12.47-1/R4_1247_1.glm
//Input feeder information for Taxonomy Feeders with different cases.
//Started on 10/21/09. This version created 07-Feb-2018 11:09:38.
// This version was created to perform FY11 Department of Energy
// analysis on the benefits of the SGIG grant projects.

clock {
     timezone CST+6CDT;
     starttime '2009-08-04 11:08:00';
     stoptime '2009-08-04 12:38:00';
}

#set randomseed=1; 

#include ".\Schedules\appliance_schedules.glm";
#include ".\Schedules\water_and_setpoint_schedule_v5.glm";
#include ".\Schedules\commercial_schedules.glm";
//#define stylesheet=http://gridlab-d.svn.sourceforge.net/viewvc/gridlab-d/trunk/core/gridlabd-2_0
#set minimum_timestep=2;
#set profiler=1;
#set relax_naming_rules=1;

#set pauseatexit=TRUE
//link with matlab
#ifdef MATLAB
link matlabController.link;
#endif
module tape;
module climate;
module residential {
     implicit_enduses NONE;
};
module powerflow {
     solver_method NR;
     NR_iteration_limit 50;
};

class player {
     double value;
};

object player {
     name controlOnOff;
     file "controlOnOff.player";
     loop 1000000;
};

module market;

object climate {
     name "TN-Nashville";
     tmyfile ".\\Weather\\TN-Nashville.tmy2";
     interpolate QUADRATIC;
};

//Configurations

object regulator_configuration {     
      name regulator_configuration_3887;     
      name feeder_reg_cfg;     
      Control OUTPUT_VOLTAGE;     
      band_center 8300.0;     
      band_width 133;     
      connect_type WYE_WYE;     
      time_delay 30;     
      raise_taps 16;     
      lower_taps 16;     
      regulation 0.10;     
      tap_pos_A 0;     
      tap_pos_B 0;     
      tap_pos_C 0;     
}       

object line_configuration {     
      name line_configuration_21;     
      conductor_B overhead_line_conductor_2;     
      conductor_N overhead_line_conductor_2;     
      spacing line_spacing_8;     
}       

object line_configuration {     
      name line_configuration_22;     
      conductor_C overhead_line_conductor_2;     
      conductor_N overhead_line_conductor_2;     
      spacing line_spacing_9;     
}       

object line_configuration {     
      name line_configuration_23;     
      conductor_A overhead_line_conductor_3;     
      conductor_B overhead_line_conductor_3;     
      conductor_C overhead_line_conductor_3;     
      conductor_N overhead_line_conductor_3;     
      spacing line_spacing_10;     
}       

object line_configuration {     
      name line_configuration_24;     
      conductor_A overhead_line_conductor_3;     
      conductor_B overhead_line_conductor_3;     
      conductor_C overhead_line_conductor_3;     
      conductor_N overhead_line_conductor_3;     
      spacing line_spacing_10;     
}       

object line_configuration {     
      name line_configuration_25;     
      conductor_A overhead_line_conductor_4;     
      conductor_B overhead_line_conductor_4;     
      conductor_C overhead_line_conductor_4;     
      conductor_N overhead_line_conductor_4;     
      spacing line_spacing_10;     
}       

object line_configuration {     
      name line_configuration_26;     
      conductor_A overhead_line_conductor_5;     
      conductor_B overhead_line_conductor_5;     
      conductor_C overhead_line_conductor_5;     
      conductor_N overhead_line_conductor_5;     
      spacing line_spacing_10;     
}       

object line_configuration {     
      name line_configuration_27;     
      conductor_A overhead_line_conductor_5;     
      conductor_B overhead_line_conductor_5;     
      conductor_C overhead_line_conductor_5;     
      conductor_N overhead_line_conductor_5;     
      spacing line_spacing_10;     
}       

object line_configuration {     
      name line_configuration_28;     
      conductor_A overhead_line_conductor_2;     
      conductor_N overhead_line_conductor_2;     
      spacing line_spacing_11;     
}       

object line_configuration {     
      name line_configuration_29;     
      conductor_A overhead_line_conductor_3;     
      conductor_C overhead_line_conductor_3;     
      conductor_N overhead_line_conductor_3;     
      spacing line_spacing_12;     
}       

object line_configuration {     
      name line_configuration_30;     
      conductor_A overhead_line_conductor_6;     
      conductor_B overhead_line_conductor_6;     
      conductor_C overhead_line_conductor_6;     
      conductor_N overhead_line_conductor_6;     
      spacing line_spacing_10;     
}       

object line_configuration {     
      name line_configuration_31;     
      conductor_A overhead_line_conductor_2;     
      conductor_B overhead_line_conductor_2;     
      conductor_N overhead_line_conductor_2;     
      spacing line_spacing_13;     
}       

object line_configuration {     
      name line_configuration_32;     
      conductor_A overhead_line_conductor_2;     
      conductor_B overhead_line_conductor_2;     
      conductor_C overhead_line_conductor_2;     
      conductor_N overhead_line_conductor_2;     
      spacing line_spacing_10;     
}       

object line_configuration {     
      name line_configuration_33;     
      conductor_A overhead_line_conductor_2;     
      conductor_C overhead_line_conductor_2;     
      conductor_N overhead_line_conductor_2;     
      spacing line_spacing_12;     
}       

object line_configuration {     
      name line_configuration_34;     
      conductor_A underground_line_conductor_7;     
      conductor_N underground_line_conductor_7;     
      spacing line_spacing_14;     
}       

object line_configuration {     
      name line_configuration_35;     
      conductor_B overhead_line_conductor_2;     
      conductor_C overhead_line_conductor_2;     
      conductor_N overhead_line_conductor_2;     
      spacing line_spacing_15;     
}       

object line_configuration {     
      name line_configuration_36;     
      conductor_C underground_line_conductor_7;     
      conductor_N underground_line_conductor_7;     
      spacing line_spacing_16;     
}       

object line_configuration {     
      name line_configuration_37;     
      conductor_B underground_line_conductor_7;     
      conductor_N underground_line_conductor_7;     
      spacing line_spacing_17;     
}       

object line_configuration {     
      name line_configuration_38;     
      conductor_B overhead_line_conductor_3;     
      conductor_N overhead_line_conductor_3;     
      spacing line_spacing_8;     
}       

object line_configuration {     
      name line_configuration_39;     
      conductor_C overhead_line_conductor_3;     
      conductor_N overhead_line_conductor_3;     
      spacing line_spacing_9;     
}       

object line_configuration {     
      name line_configuration_40;     
      conductor_A overhead_line_conductor_4;     
      conductor_B overhead_line_conductor_4;     
      conductor_C overhead_line_conductor_4;     
      conductor_N overhead_line_conductor_4;     
      spacing line_spacing_10;     
}       

object line_configuration {     
      name line_configuration_41;     
      conductor_A overhead_line_conductor_3;     
      conductor_B overhead_line_conductor_3;     
      conductor_N overhead_line_conductor_3;     
      spacing line_spacing_13;     
}       

object line_configuration {     
      name line_configuration_42;     
      conductor_A overhead_line_conductor_2;     
      conductor_N overhead_line_conductor_2;     
      spacing line_spacing_11;     
}       

object line_configuration {     
      name line_configuration_43;     
      conductor_B overhead_line_conductor_2;     
      conductor_C overhead_line_conductor_2;     
      conductor_N overhead_line_conductor_2;     
      spacing line_spacing_18;     
}       

object line_configuration {     
      name line_configuration_44;     
      conductor_A overhead_line_conductor_2;     
      conductor_B overhead_line_conductor_2;     
      conductor_C overhead_line_conductor_2;     
      conductor_N overhead_line_conductor_2;     
      spacing line_spacing_10;     
}       

object line_configuration {     
      name line_configuration_45;     
      conductor_C overhead_line_conductor_2;     
      conductor_N overhead_line_conductor_2;     
      spacing line_spacing_9;     
}       

object line_configuration {     
      name line_configuration_46;     
      conductor_A overhead_line_conductor_3;     
      conductor_N overhead_line_conductor_3;     
      spacing line_spacing_11;     
}       

object line_configuration {     
      name line_configuration_47;     
      conductor_A underground_line_conductor_7;     
      conductor_B underground_line_conductor_7;     
      conductor_C underground_line_conductor_7;     
      conductor_N underground_line_conductor_7;     
      spacing line_spacing_19;     
}       

object line_configuration {     
      name line_configuration_48;     
      conductor_A overhead_line_conductor_3;     
      conductor_B overhead_line_conductor_3;     
      conductor_C overhead_line_conductor_3;     
      conductor_N overhead_line_conductor_3;     
      spacing line_spacing_20;     
}       

object line_configuration {     
      name line_configuration_49;     
      conductor_B overhead_line_conductor_2;     
      conductor_C overhead_line_conductor_2;     
      conductor_N overhead_line_conductor_2;     
      spacing line_spacing_15;     
}       

object line_spacing {     
      name line_spacing_8;     
      distance_BN 69.99999999996 in;    
}       

object line_spacing {     
      name line_spacing_9;     
      distance_CN 69.99999999996 in;    
}       

object line_spacing {     
      name line_spacing_10;     
      distance_AB 53.19999999996 in;    
      distance_BC 53.19999999996 in;    
      distance_AC 53.19999999996 in;    
      distance_AN 80.49999999996 in;    
      distance_BN 80.49999999996 in;    
      distance_CN 80.49999999996 in;    
}       

object line_spacing {     
      name line_spacing_11;     
      distance_AN 69.99999999996 in;    
}       

object line_spacing {     
      name line_spacing_12;     
      distance_AC 87.99999999996 in;    
      distance_AN 19.2 in;    
      distance_CN 19.2 in;    
}       

object line_spacing {     
      name line_spacing_13;     
      distance_AB 87.99999999996 in;    
      distance_AN 19.2 in;    
      distance_BN 19.2 in;    
}       

object line_spacing {     
      name line_spacing_14;     
      distance_AN 360.0 in;    
}       

object line_spacing {     
      name line_spacing_15;     
      distance_BC 87.99999999996 in;    
      distance_BN 19.2 in;    
      distance_CN 19.2 in;    
}       

object line_spacing {     
      name line_spacing_16;     
      distance_CN 360.0 in;    
}       

object line_spacing {     
      name line_spacing_17;     
      distance_BN 360.0 in;    
}       

object line_spacing {     
      name line_spacing_18;     
      distance_BC 48.0 in;    
      distance_BN 20.79999999996 in;    
      distance_CN 20.79999999996 in;    
}       

object line_spacing {     
      name line_spacing_19;     
      distance_AB 12.0 in;    
      distance_BC 12.0 in;    
      distance_AC 12.0 in;    
      distance_AN 360.0 in;    
      distance_BN 360.0 in;    
      distance_CN 360.0 in;    
}       

object line_spacing {     
      name line_spacing_20;     
      distance_AB 60.50000000004 in;    
      distance_BC 60.50000000004 in;    
      distance_AC 60.50000000004 in;    
      distance_AN 114.99999999996 in;    
      distance_BN 114.99999999996 in;    
      distance_CN 114.99999999996 in;    
}       

object overhead_line_conductor {     
      name overhead_line_conductor_2;     
      //name 4 CU;    
      rating.summer.continuous 149.0;     
      geometric_mean_radius 0.00663 ft;    
      resistance 1.50000;     
}       

object overhead_line_conductor {     
      name overhead_line_conductor_3;     
      //name 123.3 AAAC;    
      rating.summer.continuous 256.0;     
      geometric_mean_radius 0.01200 ft;    
      resistance 0.16600;     
}       

object overhead_line_conductor {     
      name overhead_line_conductor_4;     
      //name 4/0 ACSR;    
      rating.summer.continuous 334.0;     
      geometric_mean_radius 0.00814 ft;    
      resistance 0.56300;     
}       

object overhead_line_conductor {     
      name overhead_line_conductor_5;     
      //name 4/0 AAC;    
      rating.summer.continuous 360.0;     
      geometric_mean_radius 0.01033 ft;    
      resistance 0.47600;     
}       

object overhead_line_conductor {     
      name overhead_line_conductor_6;     
      //name 343 ACSR;    
      rating.summer.continuous 531.0;     
      geometric_mean_radius 0.02240 ft;    
      resistance 0.30600;     
}       

object transformer_configuration {     
      name transformer_configuration_2675;     
      oil_volume 15;     
      core_coil_weight 115.9863;     
      tank_fittings_weight 139.1836;     
      full_load_loss 0.01748;     
      no_load_loss 0.00472;     
      rated_winding_hot_spot_rise 80;     
      rated_top_oil_rise 60;     
      coolant_type MINERAL_OIL;     
      cooling_type OA;     
      rated_winding_time_constant 0.083333;     
      installed_insulation_life 175200;     
      connect_type SINGLE_PHASE_CENTER_TAPPED;     
      install_type POLETOP;     
      primary_voltage 7967.43 V;    
      secondary_voltage 120 V;    
      power_rating 25.0;     
      powerA_rating 25.0;     
      resistance 0.00600;     
      reactance 0.00400;     
      shunt_impedance 339.610+322.788j;     
}       

object transformer_configuration {     
      name transformer_configuration_2676;     
      oil_volume 8;     
      core_coil_weight 72.1624;     
      tank_fittings_weight 86.5949;     
      full_load_loss 0.0239;     
      no_load_loss 0.0067;     
      rated_winding_hot_spot_rise 80;     
      rated_top_oil_rise 60;     
      coolant_type MINERAL_OIL;     
      cooling_type OA;     
      rated_winding_time_constant 0.083333;     
      installed_insulation_life 175200;     
      connect_type SINGLE_PHASE_CENTER_TAPPED;     
      install_type POLETOP;     
      primary_voltage 7967.43 V;    
      secondary_voltage 120 V;    
      power_rating 10.0;     
      powerA_rating 10.0;     
      resistance 0.015;     
      reactance 0.01;     
      shunt_impedance 308.320+322.773j;     
}       

object transformer_configuration {     
      name transformer_configuration_2677;     
      oil_volume 26;     
      core_coil_weight 216.346;     
      tank_fittings_weight 259.6152;     
      full_load_loss 0.0147;     
      no_load_loss 0.0037;     
      rated_winding_hot_spot_rise 80;     
      rated_top_oil_rise 60;     
      coolant_type MINERAL_OIL;     
      cooling_type OA;     
      rated_winding_time_constant 0.083333;     
      installed_insulation_life 175200;     
      connect_type SINGLE_PHASE_CENTER_TAPPED;     
      install_type POLETOP;     
      primary_voltage 7967.43 V;    
      secondary_voltage 120 V;    
      power_rating 50.0;     
      powerA_rating 50.0;     
      resistance 0.00300;     
      reactance 0.00200;     
      shunt_impedance 391.760+366.010j;     
}       

object transformer_configuration {     
      name transformer_configuration_2678;     
      oil_volume 5.7289;     
      core_coil_weight 56.5652;     
      tank_fittings_weight 67.8782;     
      full_load_loss 0.0346;     
      no_load_loss 0.01;     
      rated_winding_hot_spot_rise 80;     
      rated_top_oil_rise 60;     
      coolant_type MINERAL_OIL;     
      cooling_type OA;     
      rated_winding_time_constant 0.083333;     
      installed_insulation_life 175200;     
      connect_type SINGLE_PHASE_CENTER_TAPPED;     
      install_type POLETOP;     
      primary_voltage 7967.43 V;    
      secondary_voltage 120 V;    
      power_rating 5;     
      powerA_rating 5;     
      resistance 0.015;     
      reactance 0.01;     
      shunt_impedance 297.890+246.744j;     
}       

object transformer_configuration {     
      name transformer_configuration_2679;     
      oil_volume 10;     
      core_coil_weight 85.6576;     
      tank_fittings_weight 102.7891;     
      full_load_loss 0.020333;     
      no_load_loss 0.0056;     
      rated_winding_hot_spot_rise 80;     
      rated_top_oil_rise 60;     
      coolant_type MINERAL_OIL;     
      cooling_type OA;     
      rated_winding_time_constant 0.083333;     
      installed_insulation_life 175200;     
      connect_type SINGLE_PHASE_CENTER_TAPPED;     
      install_type POLETOP;     
      primary_voltage 7967.43 V;    
      secondary_voltage 120 V;    
      power_rating 15.0;     
      powerA_rating 15.0;     
      resistance 0.01000;     
      reactance 0.00667;     
      shunt_impedance 318.750+365.623j;     
}       

object transformer_configuration {     
      name transformer_configuration_2680;     
      oil_volume 47;     
      core_coil_weight 343.2723;     
      tank_fittings_weight 411.9268;     
      full_load_loss 0.01365;     
      no_load_loss 0.00385;     
      rated_winding_hot_spot_rise 80;     
      rated_top_oil_rise 60;     
      coolant_type MINERAL_OIL;     
      cooling_type OA;     
      rated_winding_time_constant 0.083333;     
      installed_insulation_life 175200;     
      connect_type SINGLE_PHASE_CENTER_TAPPED;     
      install_type POLETOP;     
      primary_voltage 7967.43 V;    
      secondary_voltage 120 V;    
      power_rating 100.0;     
      powerA_rating 100.0;     
      resistance 0.00150;     
      reactance 0.00100;     
      shunt_impedance 496.060+530.493j;     
}       

object transformer_configuration {     
      name transformer_configuration_2681;     
      oil_volume 40;     
      core_coil_weight 256.2667;     
      tank_fittings_weight 307.5199;     
      full_load_loss 0.014;     
      no_load_loss 0.0038;     
      rated_winding_hot_spot_rise 80;     
      rated_top_oil_rise 60;     
      coolant_type MINERAL_OIL;     
      cooling_type OA;     
      rated_winding_time_constant 0.083333;     
      installed_insulation_life 175200;     
      connect_type SINGLE_PHASE_CENTER_TAPPED;     
      install_type POLETOP;     
      primary_voltage 7967.43 V;    
      secondary_voltage 120 V;    
      power_rating 75.0;     
      powerA_rating 75.0;     
      resistance 0.00200;     
      reactance 0.00133;     
      shunt_impedance 443.910+421.240j;     
}       

object transformer_configuration {     
      name transformer_configuration_2682;     
      oil_volume 10;     
      core_coil_weight 85.6576;     
      tank_fittings_weight 102.7891;     
      full_load_loss 0.020333;     
      no_load_loss 0.0056;     
      rated_winding_hot_spot_rise 80;     
      rated_top_oil_rise 60;     
      coolant_type MINERAL_OIL;     
      cooling_type OA;     
      rated_winding_time_constant 0.083333;     
      installed_insulation_life 175200;     
      connect_type SINGLE_PHASE_CENTER_TAPPED;     
      install_type PADMOUNT;     
      primary_voltage 7967.43 V;    
      secondary_voltage 120 V;    
      power_rating 15.0;     
      powerA_rating 15.0;     
      resistance 0.01000;     
      reactance 0.00667;     
      shunt_impedance 318.750+322.364j;     
}       

object transformer_configuration {     
      name transformer_configuration_2683;     
      oil_volume 15;     
      core_coil_weight 115.9863;     
      tank_fittings_weight 139.1836;     
      full_load_loss 0.01748;     
      no_load_loss 0.00472;     
      rated_winding_hot_spot_rise 80;     
      rated_top_oil_rise 60;     
      coolant_type MINERAL_OIL;     
      cooling_type OA;     
      rated_winding_time_constant 0.083333;     
      installed_insulation_life 175200;     
      connect_type SINGLE_PHASE_CENTER_TAPPED;     
      install_type PADMOUNT;     
      primary_voltage 7967.43 V;    
      secondary_voltage 120 V;    
      power_rating 25.0;     
      powerA_rating 25.0;     
      resistance 0.00600;     
      reactance 0.00400;     
      shunt_impedance 339.610+331.806j;     
}       

object transformer_configuration {     
      name transformer_configuration_2684;     
      oil_volume 17;     
      core_coil_weight 163.5724;     
      tank_fittings_weight 196.2869;     
      full_load_loss 0.015811;     
      no_load_loss 0.0044865;     
      rated_winding_hot_spot_rise 80;     
      rated_top_oil_rise 60;     
      coolant_type MINERAL_OIL;     
      cooling_type OA;     
      rated_winding_time_constant 0.083333;     
      installed_insulation_life 175200;     
      connect_type SINGLE_PHASE_CENTER_TAPPED;     
      install_type POLETOP;     
      primary_voltage 7967.43 V;    
      secondary_voltage 120 V;    
      power_rating 37.5;     
      powerA_rating 37.5;     
      resistance 0.00400;     
      reactance 0.00267;     
      shunt_impedance 365.685+312.232j;     
}       

object transformer_configuration {     
      name transformer_configuration_2685;     
      oil_volume 5.7289;     
      core_coil_weight 56.5652;     
      tank_fittings_weight 67.8782;     
      full_load_loss 0.0346;     
      no_load_loss 0.01;     
      rated_winding_hot_spot_rise 80;     
      rated_top_oil_rise 60;     
      coolant_type MINERAL_OIL;     
      cooling_type OA;     
      rated_winding_time_constant 0.083333;     
      installed_insulation_life 175200;     
      connect_type SINGLE_PHASE_CENTER_TAPPED;     
      install_type PADMOUNT;     
      primary_voltage 7967.43 V;    
      secondary_voltage 120 V;    
      power_rating 5;     
      powerA_rating 5;     
      resistance 0.015;     
      reactance 0.01;     
      shunt_impedance 297.890+212.028j;     
}       

object transformer_configuration {     
      name transformer_configuration_2686;     
      oil_volume 26;     
      core_coil_weight 216.346;     
      tank_fittings_weight 259.6152;     
      full_load_loss 0.0147;     
      no_load_loss 0.0037;     
      rated_winding_hot_spot_rise 80;     
      rated_top_oil_rise 60;     
      coolant_type MINERAL_OIL;     
      cooling_type OA;     
      rated_winding_time_constant 0.083333;     
      installed_insulation_life 175200;     
      connect_type SINGLE_PHASE_CENTER_TAPPED;     
      install_type PADMOUNT;     
      primary_voltage 7967.43 V;    
      secondary_voltage 120 V;    
      power_rating 50.0;     
      powerA_rating 50.0;     
      resistance 0.00300;     
      reactance 0.00200;     
      shunt_impedance 391.760+389.900j;     
}       

object transformer_configuration {     
      name transformer_configuration_2687;     
      oil_volume 5.7289;     
      core_coil_weight 56.5652;     
      tank_fittings_weight 67.8782;     
      full_load_loss 0.0346;     
      no_load_loss 0.01;     
      rated_winding_hot_spot_rise 80;     
      rated_top_oil_rise 60;     
      coolant_type MINERAL_OIL;     
      cooling_type OA;     
      rated_winding_time_constant 0.083333;     
      installed_insulation_life 175200;     
      connect_type SINGLE_PHASE_CENTER_TAPPED;     
      install_type POLETOP;     
      primary_voltage 7967.43 V;    
      secondary_voltage 120 V;    
      power_rating 5.0;     
      powerA_rating 5.0;     
      resistance 0.015;     
      reactance 0.01;     
      shunt_impedance 297.890+284.114j;     
}       

object transformer_configuration {     
      name transformer_configuration_2688;     
      oil_volume 5.7289;     
      core_coil_weight 56.5652;     
      tank_fittings_weight 67.8782;     
      full_load_loss 0.0346;     
      no_load_loss 0.01;     
      rated_winding_hot_spot_rise 80;     
      rated_top_oil_rise 60;     
      coolant_type MINERAL_OIL;     
      cooling_type OA;     
      rated_winding_time_constant 0.083333;     
      installed_insulation_life 175200;     
      connect_type SINGLE_PHASE_CENTER_TAPPED;     
      install_type POLETOP;     
      primary_voltage 7967.43 V;    
      secondary_voltage 120 V;    
      power_rating 5;     
      powerB_rating 5;     
      resistance 0.015;     
      reactance 0.01;     
      shunt_impedance 297.890+280.712j;     
}       

object transformer_configuration {     
      name transformer_configuration_2689;     
      oil_volume 15;     
      core_coil_weight 115.9863;     
      tank_fittings_weight 139.1836;     
      full_load_loss 0.01748;     
      no_load_loss 0.00472;     
      rated_winding_hot_spot_rise 80;     
      rated_top_oil_rise 60;     
      coolant_type MINERAL_OIL;     
      cooling_type OA;     
      rated_winding_time_constant 0.083333;     
      installed_insulation_life 175200;     
      connect_type SINGLE_PHASE_CENTER_TAPPED;     
      install_type POLETOP;     
      primary_voltage 7967.43 V;    
      secondary_voltage 120 V;    
      power_rating 25.0;     
      powerB_rating 25.0;     
      resistance 0.00600;     
      reactance 0.00400;     
      shunt_impedance 339.610+310.880j;     
}       

object transformer_configuration {     
      name transformer_configuration_2690;     
      oil_volume 8;     
      core_coil_weight 72.1624;     
      tank_fittings_weight 86.5949;     
      full_load_loss 0.0239;     
      no_load_loss 0.0067;     
      rated_winding_hot_spot_rise 80;     
      rated_top_oil_rise 60;     
      coolant_type MINERAL_OIL;     
      cooling_type OA;     
      rated_winding_time_constant 0.083333;     
      installed_insulation_life 175200;     
      connect_type SINGLE_PHASE_CENTER_TAPPED;     
      install_type POLETOP;     
      primary_voltage 7967.43 V;    
      secondary_voltage 120 V;    
      power_rating 10.0;     
      powerB_rating 10.0;     
      resistance 0.015;     
      reactance 0.01;     
      shunt_impedance 308.320+252.291j;     
}       

object transformer_configuration {     
      name transformer_configuration_2691;     
      oil_volume 26;     
      core_coil_weight 216.346;     
      tank_fittings_weight 259.6152;     
      full_load_loss 0.0147;     
      no_load_loss 0.0037;     
      rated_winding_hot_spot_rise 80;     
      rated_top_oil_rise 60;     
      coolant_type MINERAL_OIL;     
      cooling_type OA;     
      rated_winding_time_constant 0.083333;     
      installed_insulation_life 175200;     
      connect_type SINGLE_PHASE_CENTER_TAPPED;     
      install_type POLETOP;     
      primary_voltage 7967.43 V;    
      secondary_voltage 120 V;    
      power_rating 50.0;     
      powerB_rating 50.0;     
      resistance 0.00300;     
      reactance 0.00200;     
      shunt_impedance 391.760+371.321j;     
}       

object transformer_configuration {     
      name transformer_configuration_2692;     
      oil_volume 47;     
      core_coil_weight 343.2723;     
      tank_fittings_weight 411.9268;     
      full_load_loss 0.01365;     
      no_load_loss 0.00385;     
      rated_winding_hot_spot_rise 80;     
      rated_top_oil_rise 60;     
      coolant_type MINERAL_OIL;     
      cooling_type OA;     
      rated_winding_time_constant 0.083333;     
      installed_insulation_life 175200;     
      connect_type SINGLE_PHASE_CENTER_TAPPED;     
      install_type POLETOP;     
      primary_voltage 7967.43 V;    
      secondary_voltage 120 V;    
      power_rating 100.0;     
      powerB_rating 100.0;     
      resistance 0.00150;     
      reactance 0.00100;     
      shunt_impedance 496.060+504.068j;     
}       

object transformer_configuration {     
      name transformer_configuration_2693;     
      oil_volume 15;     
      core_coil_weight 115.9863;     
      tank_fittings_weight 139.1836;     
      full_load_loss 0.01748;     
      no_load_loss 0.00472;     
      rated_winding_hot_spot_rise 80;     
      rated_top_oil_rise 60;     
      coolant_type MINERAL_OIL;     
      cooling_type OA;     
      rated_winding_time_constant 0.083333;     
      installed_insulation_life 175200;     
      connect_type SINGLE_PHASE_CENTER_TAPPED;     
      install_type PADMOUNT;     
      primary_voltage 7967.43 V;    
      secondary_voltage 120 V;    
      power_rating 25.0;     
      powerB_rating 25.0;     
      resistance 0.00600;     
      reactance 0.00400;     
      shunt_impedance 339.610+303.550j;     
}       

object transformer_configuration {     
      name transformer_configuration_2694;     
      oil_volume 26;     
      core_coil_weight 216.346;     
      tank_fittings_weight 259.6152;     
      full_load_loss 0.0147;     
      no_load_loss 0.0037;     
      rated_winding_hot_spot_rise 80;     
      rated_top_oil_rise 60;     
      coolant_type MINERAL_OIL;     
      cooling_type OA;     
      rated_winding_time_constant 0.083333;     
      installed_insulation_life 175200;     
      connect_type SINGLE_PHASE_CENTER_TAPPED;     
      install_type PADMOUNT;     
      primary_voltage 7967.43 V;    
      secondary_voltage 120 V;    
      power_rating 50.0;     
      powerB_rating 50.0;     
      resistance 0.00300;     
      reactance 0.00200;     
      shunt_impedance 391.760+409.409j;     
}       

object transformer_configuration {     
      name transformer_configuration_2695;     
      oil_volume 10;     
      core_coil_weight 85.6576;     
      tank_fittings_weight 102.7891;     
      full_load_loss 0.020333;     
      no_load_loss 0.0056;     
      rated_winding_hot_spot_rise 80;     
      rated_top_oil_rise 60;     
      coolant_type MINERAL_OIL;     
      cooling_type OA;     
      rated_winding_time_constant 0.083333;     
      installed_insulation_life 175200;     
      connect_type SINGLE_PHASE_CENTER_TAPPED;     
      install_type POLETOP;     
      primary_voltage 7967.43 V;    
      secondary_voltage 120 V;    
      power_rating 15.0;     
      powerB_rating 15.0;     
      resistance 0.01000;     
      reactance 0.00667;     
      shunt_impedance 318.750+310.055j;     
}       

object transformer_configuration {     
      name transformer_configuration_2696;     
      oil_volume 10;     
      core_coil_weight 85.6576;     
      tank_fittings_weight 102.7891;     
      full_load_loss 0.020333;     
      no_load_loss 0.0056;     
      rated_winding_hot_spot_rise 80;     
      rated_top_oil_rise 60;     
      coolant_type MINERAL_OIL;     
      cooling_type OA;     
      rated_winding_time_constant 0.083333;     
      installed_insulation_life 175200;     
      connect_type SINGLE_PHASE_CENTER_TAPPED;     
      install_type PADMOUNT;     
      primary_voltage 7967.43 V;    
      secondary_voltage 120 V;    
      power_rating 15.0;     
      powerB_rating 15.0;     
      resistance 0.01000;     
      reactance 0.00667;     
      shunt_impedance 318.750+315.516j;     
}       

object transformer_configuration {     
      name transformer_configuration_2697;     
      oil_volume 47;     
      core_coil_weight 343.2723;     
      tank_fittings_weight 411.9268;     
      full_load_loss 0.01365;     
      no_load_loss 0.00385;     
      rated_winding_hot_spot_rise 80;     
      rated_top_oil_rise 60;     
      coolant_type MINERAL_OIL;     
      cooling_type OA;     
      rated_winding_time_constant 0.083333;     
      installed_insulation_life 175200;     
      connect_type SINGLE_PHASE_CENTER_TAPPED;     
      install_type PADMOUNT;     
      primary_voltage 7967.43 V;    
      secondary_voltage 120 V;    
      power_rating 100.0;     
      powerB_rating 100.0;     
      resistance 0.00150;     
      reactance 0.00100;     
      shunt_impedance 496.060+425.168j;     
}       

object transformer_configuration {     
      name transformer_configuration_2698;     
      oil_volume 40;     
      core_coil_weight 256.2667;     
      tank_fittings_weight 307.5199;     
      full_load_loss 0.014;     
      no_load_loss 0.0038;     
      rated_winding_hot_spot_rise 80;     
      rated_top_oil_rise 60;     
      coolant_type MINERAL_OIL;     
      cooling_type OA;     
      rated_winding_time_constant 0.083333;     
      installed_insulation_life 175200;     
      connect_type SINGLE_PHASE_CENTER_TAPPED;     
      install_type POLETOP;     
      primary_voltage 7967.43 V;    
      secondary_voltage 120 V;    
      power_rating 75.0;     
      powerB_rating 75.0;     
      resistance 0.00200;     
      reactance 0.00133;     
      shunt_impedance 443.910+409.977j;     
}       

object transformer_configuration {     
      name transformer_configuration_2699;     
      oil_volume 8;     
      core_coil_weight 72.1624;     
      tank_fittings_weight 86.5949;     
      full_load_loss 0.0239;     
      no_load_loss 0.0067;     
      rated_winding_hot_spot_rise 80;     
      rated_top_oil_rise 60;     
      coolant_type MINERAL_OIL;     
      cooling_type OA;     
      rated_winding_time_constant 0.083333;     
      installed_insulation_life 175200;     
      connect_type SINGLE_PHASE_CENTER_TAPPED;     
      install_type PADMOUNT;     
      primary_voltage 7967.43 V;    
      secondary_voltage 120 V;    
      power_rating 10.0;     
      powerB_rating 10.0;     
      resistance 0.015;     
      reactance 0.01;     
      shunt_impedance 308.320+320.965j;     
}       

object transformer_configuration {     
      name transformer_configuration_2700;     
      oil_volume 5.7289;     
      core_coil_weight 56.5652;     
      tank_fittings_weight 67.8782;     
      full_load_loss 0.0346;     
      no_load_loss 0.01;     
      rated_winding_hot_spot_rise 80;     
      rated_top_oil_rise 60;     
      coolant_type MINERAL_OIL;     
      cooling_type OA;     
      rated_winding_time_constant 0.083333;     
      installed_insulation_life 175200;     
      connect_type SINGLE_PHASE_CENTER_TAPPED;     
      install_type POLETOP;     
      primary_voltage 7967.43 V;    
      secondary_voltage 120 V;    
      power_rating 5.0;     
      powerB_rating 5.0;     
      resistance 0.015;     
      reactance 0.01;     
      shunt_impedance 297.890+274.359j;     
}       

object transformer_configuration {     
      name transformer_configuration_2701;     
      oil_volume 17;     
      core_coil_weight 163.5724;     
      tank_fittings_weight 196.2869;     
      full_load_loss 0.015811;     
      no_load_loss 0.0044865;     
      rated_winding_hot_spot_rise 80;     
      rated_top_oil_rise 60;     
      coolant_type MINERAL_OIL;     
      cooling_type OA;     
      rated_winding_time_constant 0.083333;     
      installed_insulation_life 175200;     
      connect_type SINGLE_PHASE_CENTER_TAPPED;     
      install_type POLETOP;     
      primary_voltage 7967.43 V;    
      secondary_voltage 120 V;    
      power_rating 37.5;     
      powerB_rating 37.5;     
      resistance 0.00400;     
      reactance 0.00267;     
      shunt_impedance 365.685+371.596j;     
}       

object transformer_configuration {     
      name transformer_configuration_2702;     
      oil_volume 40.9868;     
      core_coil_weight 293.4835;     
      tank_fittings_weight 352.1803;     
      full_load_loss 0.0138;     
      no_load_loss 0.0038;     
      rated_winding_hot_spot_rise 80;     
      rated_top_oil_rise 60;     
      coolant_type MINERAL_OIL;     
      cooling_type OA;     
      rated_winding_time_constant 0.083333;     
      installed_insulation_life 175200;     
      connect_type SINGLE_PHASE_CENTER_TAPPED;     
      install_type POLETOP;     
      primary_voltage 7967.43 V;    
      secondary_voltage 120 V;    
      power_rating 87.5;     
      powerB_rating 87.5;     
      resistance 0.00171;     
      reactance 0.00114;     
      shunt_impedance 469.985+562.944j;     
}       

object transformer_configuration {     
      name transformer_configuration_2703;     
      oil_volume 15;     
      core_coil_weight 115.9863;     
      tank_fittings_weight 139.1836;     
      full_load_loss 0.01748;     
      no_load_loss 0.00472;     
      rated_winding_hot_spot_rise 80;     
      rated_top_oil_rise 60;     
      coolant_type MINERAL_OIL;     
      cooling_type OA;     
      rated_winding_time_constant 0.083333;     
      installed_insulation_life 175200;     
      connect_type SINGLE_PHASE_CENTER_TAPPED;     
      install_type POLETOP;     
      primary_voltage 7967.43 V;    
      secondary_voltage 120 V;    
      power_rating 25.0;     
      powerC_rating 25.0;     
      resistance 0.00600;     
      reactance 0.00400;     
      shunt_impedance 339.610+366.618j;     
}       

object transformer_configuration {     
      name transformer_configuration_2704;     
      oil_volume 5.7289;     
      core_coil_weight 56.5652;     
      tank_fittings_weight 67.8782;     
      full_load_loss 0.0346;     
      no_load_loss 0.01;     
      rated_winding_hot_spot_rise 80;     
      rated_top_oil_rise 60;     
      coolant_type MINERAL_OIL;     
      cooling_type OA;     
      rated_winding_time_constant 0.083333;     
      installed_insulation_life 175200;     
      connect_type SINGLE_PHASE_CENTER_TAPPED;     
      install_type POLETOP;     
      primary_voltage 7967.43 V;    
      secondary_voltage 120 V;    
      power_rating 5;     
      powerC_rating 5;     
      resistance 0.015;     
      reactance 0.01;     
      shunt_impedance 297.890+328.792j;     
}       

object transformer_configuration {     
      name transformer_configuration_2705;     
      oil_volume 8;     
      core_coil_weight 72.1624;     
      tank_fittings_weight 86.5949;     
      full_load_loss 0.0239;     
      no_load_loss 0.0067;     
      rated_winding_hot_spot_rise 80;     
      rated_top_oil_rise 60;     
      coolant_type MINERAL_OIL;     
      cooling_type OA;     
      rated_winding_time_constant 0.083333;     
      installed_insulation_life 175200;     
      connect_type SINGLE_PHASE_CENTER_TAPPED;     
      install_type POLETOP;     
      primary_voltage 7967.43 V;    
      secondary_voltage 120 V;    
      power_rating 10.0;     
      powerC_rating 10.0;     
      resistance 0.015;     
      reactance 0.01;     
      shunt_impedance 308.320+381.094j;     
}       

object transformer_configuration {     
      name transformer_configuration_2706;     
      oil_volume 10;     
      core_coil_weight 85.6576;     
      tank_fittings_weight 102.7891;     
      full_load_loss 0.020333;     
      no_load_loss 0.0056;     
      rated_winding_hot_spot_rise 80;     
      rated_top_oil_rise 60;     
      coolant_type MINERAL_OIL;     
      cooling_type OA;     
      rated_winding_time_constant 0.083333;     
      installed_insulation_life 175200;     
      connect_type SINGLE_PHASE_CENTER_TAPPED;     
      install_type POLETOP;     
      primary_voltage 7967.43 V;    
      secondary_voltage 120 V;    
      power_rating 15.0;     
      powerC_rating 15.0;     
      resistance 0.01000;     
      reactance 0.00667;     
      shunt_impedance 318.750+356.216j;     
}       

object transformer_configuration {     
      name transformer_configuration_2707;     
      oil_volume 5.7289;     
      core_coil_weight 56.5652;     
      tank_fittings_weight 67.8782;     
      full_load_loss 0.0346;     
      no_load_loss 0.01;     
      rated_winding_hot_spot_rise 80;     
      rated_top_oil_rise 60;     
      coolant_type MINERAL_OIL;     
      cooling_type OA;     
      rated_winding_time_constant 0.083333;     
      installed_insulation_life 175200;     
      connect_type SINGLE_PHASE_CENTER_TAPPED;     
      install_type POLETOP;     
      primary_voltage 7967.43 V;    
      secondary_voltage 120 V;    
      power_rating 5.0;     
      powerC_rating 5.0;     
      resistance 0.015;     
      reactance 0.01;     
      shunt_impedance 297.890+309.738j;     
}       

object transformer_configuration {     
      name transformer_configuration_2708;     
      oil_volume 26;     
      core_coil_weight 216.346;     
      tank_fittings_weight 259.6152;     
      full_load_loss 0.0147;     
      no_load_loss 0.0037;     
      rated_winding_hot_spot_rise 80;     
      rated_top_oil_rise 60;     
      coolant_type MINERAL_OIL;     
      cooling_type OA;     
      rated_winding_time_constant 0.083333;     
      installed_insulation_life 175200;     
      connect_type SINGLE_PHASE_CENTER_TAPPED;     
      install_type POLETOP;     
      primary_voltage 7967.43 V;    
      secondary_voltage 120 V;    
      power_rating 50.0;     
      powerC_rating 50.0;     
      resistance 0.00300;     
      reactance 0.00200;     
      shunt_impedance 391.760+468.202j;     
}       

object transformer_configuration {     
      name transformer_configuration_2709;     
      oil_volume 10;     
      core_coil_weight 85.6576;     
      tank_fittings_weight 102.7891;     
      full_load_loss 0.020333;     
      no_load_loss 0.0056;     
      rated_winding_hot_spot_rise 80;     
      rated_top_oil_rise 60;     
      coolant_type MINERAL_OIL;     
      cooling_type OA;     
      rated_winding_time_constant 0.083333;     
      installed_insulation_life 175200;     
      connect_type SINGLE_PHASE_CENTER_TAPPED;     
      install_type PADMOUNT;     
      primary_voltage 7967.43 V;    
      secondary_voltage 120 V;    
      power_rating 15.0;     
      powerC_rating 15.0;     
      resistance 0.01000;     
      reactance 0.00667;     
      shunt_impedance 318.750+289.914j;     
}       

object transformer_configuration {     
      name transformer_configuration_2710;     
      oil_volume 5.7289;     
      core_coil_weight 56.5652;     
      tank_fittings_weight 67.8782;     
      full_load_loss 0.0346;     
      no_load_loss 0.01;     
      rated_winding_hot_spot_rise 80;     
      rated_top_oil_rise 60;     
      coolant_type MINERAL_OIL;     
      cooling_type OA;     
      rated_winding_time_constant 0.083333;     
      installed_insulation_life 175200;     
      connect_type SINGLE_PHASE_CENTER_TAPPED;     
      install_type PADMOUNT;     
      primary_voltage 7967.43 V;    
      secondary_voltage 120 V;    
      power_rating 5;     
      powerC_rating 5;     
      resistance 0.015;     
      reactance 0.01;     
      shunt_impedance 297.890+277.569j;     
}       

object transformer_configuration {     
      name transformer_configuration_2711;     
      oil_volume 29.9307;     
      core_coil_weight 241.6072;     
      tank_fittings_weight 289.9286;     
      full_load_loss 0.01435;     
      no_load_loss 0.00375;     
      rated_winding_hot_spot_rise 80;     
      rated_top_oil_rise 60;     
      coolant_type MINERAL_OIL;     
      cooling_type OA;     
      rated_winding_time_constant 0.083333;     
      installed_insulation_life 175200;     
      connect_type SINGLE_PHASE_CENTER_TAPPED;     
      install_type PADMOUNT;     
      primary_voltage 7967.43 V;    
      secondary_voltage 120 V;    
      power_rating 62.5;     
      powerC_rating 62.5;     
      resistance 0.00240;     
      reactance 0.00160;     
      shunt_impedance 417.835+502.166j;     
}       

object transformer_configuration {     
      name transformer_configuration_2712;     
      oil_volume 40;     
      core_coil_weight 256.2667;     
      tank_fittings_weight 307.5199;     
      full_load_loss 0.014;     
      no_load_loss 0.0038;     
      rated_winding_hot_spot_rise 80;     
      rated_top_oil_rise 60;     
      coolant_type MINERAL_OIL;     
      cooling_type OA;     
      rated_winding_time_constant 0.083333;     
      installed_insulation_life 175200;     
      connect_type SINGLE_PHASE_CENTER_TAPPED;     
      install_type PADMOUNT;     
      primary_voltage 7967.43 V;    
      secondary_voltage 120 V;    
      power_rating 75.0;     
      powerC_rating 75.0;     
      resistance 0.00200;     
      reactance 0.00133;     
      shunt_impedance 443.910+464.079j;     
}       

object transformer_configuration {     
      name transformer_configuration_2713;     
      oil_volume 26;     
      core_coil_weight 216.346;     
      tank_fittings_weight 259.6152;     
      full_load_loss 0.0147;     
      no_load_loss 0.0037;     
      rated_winding_hot_spot_rise 80;     
      rated_top_oil_rise 60;     
      coolant_type MINERAL_OIL;     
      cooling_type OA;     
      rated_winding_time_constant 0.083333;     
      installed_insulation_life 175200;     
      connect_type SINGLE_PHASE_CENTER_TAPPED;     
      install_type PADMOUNT;     
      primary_voltage 7967.43 V;    
      secondary_voltage 120 V;    
      power_rating 50.0;     
      powerC_rating 50.0;     
      resistance 0.00300;     
      reactance 0.00200;     
      shunt_impedance 391.760+390.111j;     
}       

object transformer_configuration {     
      name transformer_configuration_2714;     
      oil_volume 40;     
      core_coil_weight 256.2667;     
      tank_fittings_weight 307.5199;     
      full_load_loss 0.014;     
      no_load_loss 0.0038;     
      rated_winding_hot_spot_rise 80;     
      rated_top_oil_rise 60;     
      coolant_type MINERAL_OIL;     
      cooling_type OA;     
      rated_winding_time_constant 0.083333;     
      installed_insulation_life 175200;     
      connect_type SINGLE_PHASE_CENTER_TAPPED;     
      install_type POLETOP;     
      primary_voltage 7967.43 V;    
      secondary_voltage 120 V;    
      power_rating 75.0;     
      powerC_rating 75.0;     
      resistance 0.00200;     
      reactance 0.00133;     
      shunt_impedance 443.910+464.249j;     
}       

object transformer_configuration {     
      name transformer_configuration_2715;     
      oil_volume 5.7289;     
      core_coil_weight 56.5652;     
      tank_fittings_weight 67.8782;     
      full_load_loss 0.0346;     
      no_load_loss 0.01;     
      rated_winding_hot_spot_rise 80;     
      rated_top_oil_rise 60;     
      coolant_type MINERAL_OIL;     
      cooling_type OA;     
      rated_winding_time_constant 0.083333;     
      installed_insulation_life 175200;     
      connect_type SINGLE_PHASE_CENTER_TAPPED;     
      install_type PADMOUNT;     
      primary_voltage 7967.43 V;    
      secondary_voltage 120 V;    
      power_rating 5.0;     
      powerC_rating 5.0;     
      resistance 0.015;     
      reactance 0.01;     
      shunt_impedance 297.890+290.021j;     
}       

object transformer_configuration {     
      name transformer_configuration_2716;     
      oil_volume 15;     
      core_coil_weight 115.9863;     
      tank_fittings_weight 139.1836;     
      full_load_loss 0.01748;     
      no_load_loss 0.00472;     
      rated_winding_hot_spot_rise 80;     
      rated_top_oil_rise 60;     
      coolant_type MINERAL_OIL;     
      cooling_type OA;     
      rated_winding_time_constant 0.083333;     
      installed_insulation_life 175200;     
      connect_type SINGLE_PHASE_CENTER_TAPPED;     
      install_type PADMOUNT;     
      primary_voltage 7967.43 V;    
      secondary_voltage 120 V;    
      power_rating 25.0;     
      powerC_rating 25.0;     
      resistance 0.00600;     
      reactance 0.00400;     
      shunt_impedance 339.610+329.694j;     
}       

object transformer_configuration {     
      name transformer_configuration_2717;     
      oil_volume 17;     
      core_coil_weight 163.5724;     
      tank_fittings_weight 196.2869;     
      full_load_loss 0.015811;     
      no_load_loss 0.0044865;     
      rated_winding_hot_spot_rise 80;     
      rated_top_oil_rise 60;     
      coolant_type MINERAL_OIL;     
      cooling_type OA;     
      rated_winding_time_constant 0.083333;     
      installed_insulation_life 175200;     
      connect_type SINGLE_PHASE_CENTER_TAPPED;     
      install_type POLETOP;     
      primary_voltage 7967.43 V;    
      secondary_voltage 120 V;    
      power_rating 37.5;     
      powerC_rating 37.5;     
      resistance 0.00400;     
      reactance 0.00267;     
      shunt_impedance 365.685+351.540j;     
}       

object transformer_configuration {     
      name transformer_configuration_2718;     
      oil_volume 29.9307;     
      core_coil_weight 241.6072;     
      tank_fittings_weight 289.9286;     
      full_load_loss 0.01435;     
      no_load_loss 0.00375;     
      rated_winding_hot_spot_rise 80;     
      rated_top_oil_rise 60;     
      coolant_type MINERAL_OIL;     
      cooling_type OA;     
      rated_winding_time_constant 0.083333;     
      installed_insulation_life 175200;     
      connect_type SINGLE_PHASE_CENTER_TAPPED;     
      install_type POLETOP;     
      primary_voltage 7967.43 V;    
      secondary_voltage 120 V;    
      power_rating 62.5;     
      powerC_rating 62.5;     
      resistance 0.00240;     
      reactance 0.00160;     
      shunt_impedance 417.835+411.761j;     
}       

object transformer_configuration {     
      name transformer_configuration_3194;     
      connect_type WYE_WYE;     
      install_type POLETOP;     
      primary_voltage 13800.000 V;    
      secondary_voltage 480 V;    
      power_rating 5.0;     
      powerC_rating 5.0;     
      resistance 0.01;     
      reactance 0.05;     
      shunt_impedance 297.890+281.387j;     
}       

object transformer_configuration {     
      name transformer_configuration_3195;     
      connect_type WYE_WYE;     
      install_type POLETOP;     
      primary_voltage 13800.000 V;    
      secondary_voltage 480 V;    
      power_rating 50.0;     
      powerA_rating 25.0;     
      powerB_rating 0.0;     
      powerC_rating 25.0;     
      resistance 0.00200;     
      reactance 0.01000;     
      shunt_impedance 391.760+354.789j;     
}       

object transformer_configuration {     
      name transformer_configuration_3196;     
      connect_type WYE_WYE;     
      install_type POLETOP;     
      primary_voltage 13800.000 V;    
      secondary_voltage 480 V;    
      power_rating 15.0;     
      powerA_rating 15.0;     
      powerB_rating 0.0;     
      powerC_rating 0.0;     
      resistance 0.00667;     
      reactance 0.03333;     
      shunt_impedance 318.750+316.842j;     
}       

object transformer_configuration {     
      name transformer_configuration_3197;     
      connect_type WYE_WYE;     
      install_type POLETOP;     
      primary_voltage 13800.000 V;    
      secondary_voltage 480 V;    
      power_rating 60.0;     
      powerA_rating 50.0;     
      powerB_rating 0.0;     
      powerC_rating 10.0;     
      resistance 0.00167;     
      reactance 0.00833;     
      shunt_impedance 412.620+388.907j;     
}       

object transformer_configuration {     
      name transformer_configuration_3198;     
      connect_type WYE_WYE;     
      install_type POLETOP;     
      primary_voltage 13800.000 V;    
      secondary_voltage 480 V;    
      power_rating 525.0;     
      powerA_rating 175.0;     
      powerB_rating 175.0;     
      powerC_rating 175.0;     
      resistance 0.00019;     
      reactance 0.00095;     
      shunt_impedance 1382.610+1581.962j;     
}       

object transformer_configuration {     
      name transformer_configuration_3199;     
      connect_type WYE_WYE;     
      install_type POLETOP;     
      primary_voltage 13800.000 V;    
      secondary_voltage 480 V;    
      power_rating 50.0;     
      powerA_rating 25.0;     
      powerB_rating 25.0;     
      resistance 0.00200;     
      reactance 0.01000;     
      shunt_impedance 391.760+400.987j;     
}       

object transformer_configuration {     
      name transformer_configuration_3200;     
      connect_type WYE_WYE;     
      install_type POLETOP;     
      primary_voltage 13800.000 V;    
      secondary_voltage 480 V;    
      power_rating 5.0;     
      powerA_rating 0.0;     
      powerB_rating 5.0;     
      powerC_rating 0.0;     
      resistance 0.01;     
      reactance 0.05;     
      shunt_impedance 297.890+328.316j;     
}       

object transformer_configuration {     
      name transformer_configuration_3201;     
      connect_type WYE_WYE;     
      install_type POLETOP;     
      primary_voltage 13800.000 V;    
      secondary_voltage 480 V;    
      power_rating 150.0;     
      powerA_rating 50.0;     
      powerB_rating 50.0;     
      powerC_rating 50.0;     
      resistance 0.00067;     
      reactance 0.00333;     
      shunt_impedance 600.360+591.965j;     
}       

object transformer_configuration {     
      name transformer_configuration_3202;     
      connect_type WYE_WYE;     
      install_type POLETOP;     
      primary_voltage 13800.000 V;    
      secondary_voltage 480 V;    
      power_rating 25.0;     
      powerA_rating 15.0;     
      powerC_rating 10.0;     
      resistance 0.00400;     
      reactance 0.02000;     
      shunt_impedance 339.610+336.840j;     
}       

object transformer_configuration {     
      name transformer_configuration_3203;     
      connect_type WYE_WYE;     
      install_type PADMOUNT;     
      primary_voltage 13800.000 V;    
      secondary_voltage 480 V;    
      power_rating 50.0;     
      powerA_rating 25.0;     
      powerB_rating 25.0;     
      powerC_rating 0.0;     
      resistance 0.00200;     
      reactance 0.01000;     
      shunt_impedance 391.760+441.053j;     
}       

object transformer_configuration {     
      name transformer_configuration_3204;     
      connect_type WYE_WYE;     
      install_type PADMOUNT;     
      primary_voltage 13800.000 V;    
      secondary_voltage 480 V;    
      power_rating 100.0;     
      powerA_rating 50.0;     
      powerC_rating 50.0;     
      resistance 0.00100;     
      reactance 0.00500;     
      shunt_impedance 496.060+568.908j;     
}       

object transformer_configuration {     
      name transformer_configuration_3205;     
      connect_type WYE_WYE;     
      install_type PADMOUNT;     
      primary_voltage 13800.000 V;    
      secondary_voltage 480 V;    
      power_rating 25.0;     
      powerC_rating 25.0;     
      resistance 0.00400;     
      reactance 0.02000;     
      shunt_impedance 339.610+340.729j;     
}       

object transformer_configuration {     
      name transformer_configuration_3206;     
      connect_type WYE_WYE;     
      install_type POLETOP;     
      primary_voltage 13800.000 V;    
      secondary_voltage 480 V;    
      power_rating 10.0;     
      powerB_rating 10.0;     
      resistance 0.01;     
      reactance 0.05;     
      shunt_impedance 308.320+360.502j;     
}       

object transformer_configuration {     
      name transformer_configuration_3207;     
      connect_type WYE_WYE;     
      install_type POLETOP;     
      primary_voltage 13800.000 V;    
      secondary_voltage 480 V;    
      power_rating 25.0;     
      powerA_rating 25.0;     
      resistance 0.00400;     
      reactance 0.02000;     
      shunt_impedance 339.610+355.766j;     
}       

object transformer_configuration {     
      name transformer_configuration_3208;     
      connect_type WYE_WYE;     
      install_type POLETOP;     
      primary_voltage 13800.000 V;    
      secondary_voltage 480 V;    
      power_rating 20.0;     
      powerA_rating 10.0;     
      powerB_rating 10.0;     
      resistance 0.00500;     
      reactance 0.02500;     
      shunt_impedance 329.180+341.311j;     
}       

object transformer_configuration {     
      name transformer_configuration_3209;     
      connect_type WYE_WYE;     
      install_type POLETOP;     
      primary_voltage 13800.000 V;    
      secondary_voltage 480 V;    
      power_rating 50.0;     
      powerA_rating 25.0;     
      powerB_rating 25.0;     
      powerC_rating 0.0;     
      resistance 0.00200;     
      reactance 0.01000;     
      shunt_impedance 391.760+477.634j;     
}       

object transformer_configuration {     
      name transformer_configuration_3210;     
      connect_type WYE_WYE;     
      install_type POLETOP;     
      primary_voltage 13800.000 V;    
      secondary_voltage 480 V;    
      power_rating 112.5;     
      powerA_rating 37.5;     
      powerB_rating 37.5;     
      powerC_rating 37.5;     
      resistance 0.00089;     
      reactance 0.00444;     
      shunt_impedance 522.135+602.318j;     
}       

object transformer_configuration {     
      name transformer_configuration_3211;     
      connect_type WYE_WYE;     
      install_type POLETOP;     
      primary_voltage 13800.000 V;    
      secondary_voltage 480 V;    
      power_rating 150.0;     
      powerB_rating 75.0;     
      powerC_rating 75.0;     
      resistance 0.00067;     
      reactance 0.00333;     
      shunt_impedance 600.360+654.828j;     
}       

object transformer_configuration {     
      name transformer_configuration_3212;     
      connect_type WYE_WYE;     
      install_type POLETOP;     
      primary_voltage 13800.000 V;    
      secondary_voltage 480 V;    
      power_rating 5.0;     
      powerB_rating 0.0;     
      powerC_rating 5.0;     
      resistance 0.01;     
      reactance 0.05;     
      shunt_impedance 297.890+309.873j;     
}       

object transformer_configuration {     
      name transformer_configuration_3213;     
      connect_type WYE_WYE;     
      install_type POLETOP;     
      primary_voltage 13800.000 V;    
      secondary_voltage 480 V;    
      power_rating 50.0;     
      powerB_rating 25.0;     
      powerC_rating 25.0;     
      resistance 0.00200;     
      reactance 0.01000;     
      shunt_impedance 391.760+370.668j;     
}       

object transformer_configuration {     
      name transformer_configuration_3214;     
      connect_type WYE_WYE;     
      install_type POLETOP;     
      primary_voltage 13800.000 V;    
      secondary_voltage 480 V;    
      power_rating 25.0;     
      powerC_rating 25.0;     
      resistance 0.00400;     
      reactance 0.02000;     
      shunt_impedance 339.610+335.697j;     
}       

object transformer_configuration {     
      name transformer_configuration_3215;     
      connect_type WYE_WYE;     
      install_type POLETOP;     
      primary_voltage 13800.000 V;    
      secondary_voltage 480 V;    
      power_rating 10.0;     
      powerC_rating 10.0;     
      resistance 0.01;     
      reactance 0.05;     
      shunt_impedance 308.320+364.496j;     
}       

object transformer_configuration {     
      name transformer_configuration_3216;     
      connect_type WYE_WYE;     
      install_type POLETOP;     
      primary_voltage 13800.000 V;    
      secondary_voltage 480 V;    
      power_rating 75.0;     
      powerB_rating 50.0;     
      powerC_rating 25.0;     
      resistance 0.00133;     
      reactance 0.00667;     
      shunt_impedance 443.910+354.173j;     
}       

object transformer_configuration {     
      name transformer_configuration_3217;     
      connect_type WYE_WYE;     
      install_type POLETOP;     
      primary_voltage 13800.000 V;    
      secondary_voltage 480 V;    
      power_rating 50.0;     
      powerA_rating 25.0;     
      powerC_rating 25.0;     
      resistance 0.00200;     
      reactance 0.01000;     
      shunt_impedance 391.760+366.806j;     
}       

object transformer_configuration {     
      name transformer_configuration_3218;     
...